10
Displaced Coordinates
C  -0.696126  -1.15854697243  0.0175129835935
C  0.696126  -1.15854697243  -0.0175129835935
N  -1.417532  0.0  -0.0072121686941
N  1.417532  0.0  0.0072121686941
C  0.696126  1.15854697243  -0.0175129835935
C  -0.696126  1.15854697243  0.0175129835935
H  1.250625  2.17840720265  -0.163446522216
H  -1.250625  2.17840720265  0.163446522216
H  1.250625  -2.17840720265  -0.163446522216
H  -1.250625  -2.17840720265  0.163446522216
